3g8i
  PyMOL2.5          3D                             0

 31 34  0  0  0  0  0  0  0  0999 V2000
   48.2380   30.7570   36.7070 N   0  0  0  0  0  0  0  0  0  0  0  0
   48.6300   31.5530   37.7480 C   0  0  0  0  0  0  0  0  0  0  0  0
   47.7480   32.5800   38.0350 O   0  0  0  0  0  0  0  0  0  0  0  0
   47.0720   31.2530   36.2680 C   0  0  0  0  0  0  0  0  0  0  0  0
   45.1200   34.8690   33.0480 C   0  0  0  0  0  0  0  0  0  0  0  0
   45.3020   35.9310   32.0820 C   0  0  0  0  0  0  0  0  0  0  0  0
   46.7530   32.4120   37.1250 C   0  0  0  0  0  0  0  0  0  0  0  0
   46.2250   35.6790   30.9340 C   0  0  0  0  0  0  0  0  0  0  0  0
   44.4160   37.2470   32.4990 S   0  0  0  0  0  0  0  0  0  0  0  0
   48.3050   38.1990   29.0840 C   0  0  0  0  0  0  0  0  0  0  0  0
   46.5010   36.7250   29.8760 C   0  0  0  0  0  0  0  0  0  0  0  0
   43.7710   36.4980   33.8890 C   0  0  0  0  0  0  0  0  0  0  0  0
   45.8420   33.6110   32.8740 C   0  0  0  0  0  0  0  0  0  0  0  0
   47.7790   37.4680   30.2810 C   0  0  0  0  0  0  0  0  0  0  0  0
   44.2050   35.1840   34.1210 C   0  0  0  0  0  0  0  0  0  0  0  0
   49.8280   31.1940   38.3710 C   0  0  0  0  0  0  0  0  0  0  0  0
   46.8820   34.4300   30.8210 C   0  0  0  0  0  0  0  0  0  0  0  0
   47.9770   39.3710   28.8980 O   0  0  0  0  0  0  0  0  0  0  0  0
   46.6850   33.4120   31.7720 C   0  0  0  0  0  0  0  0  0  0  0  0
   46.1820   30.7880   35.1620 C   0  0  0  0  0  0  0  0  0  0  0  0
   49.0280   37.5890   28.2940 O   0  0  0  0  0  0  0  0  0  0  0  0
   45.6220   32.6470   33.8060 O   0  0  0  0  0  0  0  0  0  0  0  0
   46.4810   31.5270   33.8790 C   0  0  0  0  0  0  0  0  0  0  0  0
   47.4970   38.3590   31.3810 O   0  0  0  0  0  0  0  0  0  0  0  0
   45.5950   33.3750   37.1100 C   0  0  0  0  0  0  0  0  0  0  0  0
   50.5750   30.0860   37.9470 C   0  0  0  0  0  0  0  0  0  0  0  0
   50.2900   31.9670   39.4470 C   0  0  0  0  0  0  0  0  0  0  0  0
   48.6880   39.0080   31.8670 C   0  0  0  0  0  0  0  0  0  0  0  0
   51.7760   29.7400   38.5810 C   0  0  0  0  0  0  0  0  0  0  0  0
   51.4860   31.6320   40.0920 C   0  0  0  0  0  0  0  0  0  0  0  0
   52.2240   30.5280   39.6630 C   0  0  0  0  0  0  0  0  0  0  0  0
  1  4  4  0  0  0  0
  1  2  4  0  0  0  0
  2 16  1  0  0  0  0
  2  3  4  0  0  0  0
  4 20  1  0  0  0  0
  5  6  4  0  0  0  0
  5 15  4  0  0  0  0
  6  8  4  0  0  0  0
  6  9  4  0  0  0  0
  3  7  4  0  0  0  0
  4  7  4  0  0  0  0
  8 11  1  0  0  0  0
 10 18  4  0  0  0  0
 10 21  4  0  0  0  0
 11 14  1  0  0  0  0
  9 12  4  0  0  0  0
  5 13  4  0  0  0  0
 13 19  4  0  0  0  0
 10 14  1  0  0  0  0
 14 24  1  0  0  0  0
 12 15  4  0  0  0  0
 16 26  4  0  0  0  0
 16 27  4  0  0  0  0
  8 17  4  0  0  0  0
 17 19  4  0  0  0  0
 20 23  1  0  0  0  0
 13 22  1  0  0  0  0
 22 23  1  0  0  0  0
 24 28  1  0  0  0  0
  7 25  1  0  0  0  0
 26 29  4  0  0  0  0
 29 31  4  0  0  0  0
 27 30  4  0  0  0  0
 30 31  4  0  0  0  0
M  END                 
$$$$
